<?xml version="1.0" encoding="UTF-8"?>

<!-- generated on 11/25/21 06:17:41 by Eclipse SUMO duarouter Version 1.5.0
<configuration xmlns:xsi="http://www.w3.org/2001/XMLSchema-instance" xsi:noNamespaceSchemaLocation="http://sumo.dlr.de/xsd/duarouterConfiguration.xsd">

    <input>
        <net-file value="../scripts/txmap.net.xml"/>
        <additional-files value="../scripts/txmap.add.xml"/>
        <route-files value="trips.trips.xml"/>
    </input>

    <output>
        <output-file value="../scripts/txmap.rou.xml"/>
        <alternatives-output value="../scripts/txmap.rou.alt.xml"/>
    </output>

    <time>
        <begin value="0"/>
        <end value="12000.0"/>
    </time>

    <report>
        <no-warnings value="true"/>
        <ignore-errors value="true"/>
        <no-step-log value="true"/>
    </report>

</configuration>
-->

<routes xmlns:xsi="http://www.w3.org/2001/XMLSchema-instance" xsi:noNamespaceSchemaLocation="http://sumo.dlr.de/xsd/routes_file.xsd">
    <vType id="typeHeavy1" length="7.10" minGap="1.50" maxSpeed="22.22" probability="0.30" guiShape="truck" width="2.40" height="2.40" color="192,192,192" accel="1.3" decel="4.0" sigma="0.5"/>
    <vehicle id="0" type="typeHeavy1" depart="0.00">
        <route edges="gneE19 gneE20 gneE21 gneE22 gneE23 gneE24 gneE36 -370567030#2 -15256606#5 -243478551#3 243478541#2 -318414469 654285496#0 -243478541#2"/>
    </vehicle>
    <vType id="typeNormal" length="4.30" minGap="1.20" maxSpeed="27.78" probability="0.90" guiShape="passenger" width="1.80" height="1.50" accel="2.9" decel="7.5" sigma="0.5"/>
    <vehicle id="1" type="typeNormal" depart="0.00">
        <route edges="-243478541#2 243478551#0 15256606#2 370567030#0"/>
    </vehicle>
    <vType id="typeLight" length="2.20" minGap="1.00" maxSpeed="25.00" probability="1.00" guiShape="motorcycle" width="0.90" height="1.50" accel="6.0" decel="10.0" sigma="0.6"/>
    <vehicle id="2" type="typeLight" depart="3.00">
        <route edges="-318425078#19 318425078#14 318425078#20 15254743#2 -gneE85 -gneE74 -gneE83 15257633#0"/>
    </vehicle>
    <vehicle id="3" type="typeNormal" depart="3.00">
        <route edges="15257098#9 -gneE97 -gneE96 -gneE95 -gneE94 gneE23 gneE24 gneE54 gneE55 gneE60 gneE61 gneE62 gneE63 gneE64 gneE65 gneE66 gneE67 gneE68 gneE69 gneE70 gneE71 gneE72 gneE73"/>
    </vehicle>
    <vehicle id="4" type="typeNormal" depart="4.00">
        <route edges="-15256606#5 15256606#2 370567030#0 -gneE36 -gneE24 -gneE23 -gneE22 -gneE21 -gneE20 -gneE19 -gneE18 gneE43 117979582#2 -117979582#4 -gneE43 gneE18 gneE19 gneE20 gneE21 gneE22"/>
    </vehicle>
    <vehicle id="5" type="typeLight" depart="5.00">
        <route edges="-gneE66 -gneE65 -gneE64 -gneE63 -gneE62 -gneE61 -gneE60 -gneE55 -gneE54 gneE36 -370567030#2 -15256606#5 15256606#2 370567030#0 -gneE36 gneE54 gneE55 gneE60 gneE61 gneE62 gneE63 gneE64 gneE65 gneE66 gneE67 gneE68 gneE69 gneE70 gneE71 gneE72 -gneE83 -15258386 15258386 gneE83 -gneE72 -gneE71"/>
    </vehicle>
    <vehicle id="7" type="typeLight" depart="7.00">
        <route edges="-370567030#2 -15256606#5 15256606#2 370567030#0 -gneE36 gneE54 gneE55 gneE60 gneE61 gneE62 gneE63 gneE64 gneE65 gneE66 gneE67 gneE68 gneE69 gneE70 -gneE87 -171757885#12"/>
    </vehicle>
    <vehicle id="8" type="typeNormal" depart="8.00">
        <route edges="-gneE47 -gneE46 -gneE44 gneE23 gneE24 gneE25"/>
    </vehicle>
    <vehicle id="9" type="typeNormal" depart="9.00">
        <route edges="-gneE32 -gneE31 -gneE25 gneE54 gneE55 gneE60 gneE61 gneE62 gneE63 gneE64 gneE65 gneE66 gneE67 gneE68 gneE69 gneE70 gneE71 gneE72"/>
    </vehicle>
    <vehicle id="10" type="typeLight" depart="10.00">
        <route edges="gneE89 gneE93 -275688225#0 15254815#0 -gneE93 -gneE92 -gneE88 gneE70 gneE71 gneE72"/>
    </vehicle>
    <vehicle id="11" type="typeNormal" depart="11.00">
        <route edges="-15256606#1 15256606#0 15256606#2 370567030#0 -gneE36 gneE54 gneE55"/>
    </vehicle>
    <vehicle id="14" type="typeNormal" depart="13.00">
        <route edges="gneE19 gneE20 gneE21"/>
    </vehicle>
    <vehicle id="15" type="typeLight" depart="13.00">
        <route edges="-gneE44 gneE23 gneE24 gneE54 gneE55 gneE60 gneE61 gneE62 gneE63 gneE64 gneE65 gneE66 gneE67 gneE68 gneE69 gneE70 gneE71 gneE72"/>
    </vehicle>
    <vehicle id="16" type="typeLight" depart="13.00">
        <route edges="gneE1 -318672327 318672327 gneE0 -117979582#4 -gneE43 gneE18 gneE19 gneE20 gneE21 gneE22 gneE94 gneE95 gneE96 gneE97 318425078#6 318425078#7 gneE15 318425078#14 -15254762#7 15254762#0"/>
    </vehicle>
    <vehicle id="17" type="typeHeavy1" depart="13.00">
        <route edges="243478551#0 15256606#2 370567030#0 -gneE36 -gneE24 -gneE23 gneE44 gneE46 gneE47 gneE49"/>
    </vehicle>
    <vehicle id="18" type="typeLight" depart="14.00">
        <route edges="15254743#0 15254743#1 -318425078#25 -318425078#19 gneE14 -318425078#11 -318425078#6 -gneE97 -gneE96 -gneE95 -gneE94 gneE23 gneE24 gneE54 gneE55 gneE60 gneE61 gneE62 gneE63 gneE64 gneE65 gneE66 gneE67 gneE68 gneE69"/>
    </vehicle>
    <vehicle id="19" type="typeNormal" depart="16.00">
        <route edges="gneE71 gneE72 gneE73 gneE85 -15254743#12 -318425078#25 -318425078#19 gneE14 -318425078#11 -318425078#6 -15257098#11 15257098#9"/>
    </vehicle>
    <vehicle id="21" type="typeNormal" depart="16.00">
        <route edges="15255985#0 -15255985#0 -15254898#0 -gneE85 -gneE74 -gneE72 -gneE71 -gneE70 -gneE69 -gneE68 -gneE67 -gneE66 -gneE65 -gneE64 -gneE63 -gneE62"/>
    </vehicle>
    <vehicle id="22" type="typeLight" depart="16.00">
        <route edges="318425078#6 318425078#7 -318425078#11 -318425078#6 -gneE97 -gneE96 -gneE95 -gneE94 gneE23 gneE24 gneE36 -370567030#2 -15256606#5 15256606#2 370567030#0 -gneE36 -gneE24"/>
    </vehicle>
    <vehicle id="23" type="typeNormal" depart="17.00">
        <route edges="-gneE46 -gneE44 -gneE22 -gneE21 -gneE20 -gneE19 -gneE18 -gneE42"/>
    </vehicle>
    <vType id="typeHeavy2" length="12.00" minGap="1.50" maxSpeed="19.44" probability="0.20" guiShape="bus" width="2.50" height="3.40" color="173,255,47" accel="1.2" decel="4.0" sigma="0.5"/>
    <vehicle id="24" type="typeHeavy2" depart="18.00">
        <route edges="gneE67 gneE68 gneE69 gneE70 gneE71 gneE72 gneE73 gneE85 -15254743#12 -318425078#25 -318425078#19 gneE14 -318425078#11 -318425078#6 -15257098#11 15257098#9"/>
    </vehicle>
    <vehicle id="26" type="typeHeavy1" depart="19.00">
        <route edges="-gneE68 -gneE67 -gneE66 -gneE65 -gneE64 -gneE63 -gneE62 -gneE61 -gneE60 -gneE55 -gneE54 -gneE24 -gneE23 gneE44 gneE46 15196728#2"/>
    </vehicle>
    <vehicle id="27" type="typeLight" depart="20.00">
        <route edges="gneE24 gneE54 gneE55 gneE60 gneE61 gneE62 gneE63 gneE64 gneE65 gneE66 gneE67 gneE68 gneE69 gneE70 gneE71 gneE72 -gneE83 -15258386 15258386 gneE83 -gneE72 -gneE71 -gneE70 -gneE69 -gneE68 -gneE67 -gneE66 -gneE65 -gneE64"/>
    </vehicle>
    <vehicle id="28" type="typeNormal" depart="20.00">
        <route edges="gneE66 gneE67 gneE68 gneE69 gneE70 gneE71 gneE72 -gneE83 -15258386 15258386 gneE83 -gneE72 -gneE71 -gneE70 -gneE69 -gneE68 -gneE67 -gneE66 -gneE65 -gneE64 -gneE63 -gneE62 -gneE61 -gneE60 -gneE55 -gneE54 -gneE24 -gneE41 -15196728#11 -gneE46 -gneE44"/>
    </vehicle>
    <vehicle id="29" type="typeLight" depart="22.00">
        <route edges="-gneE54 -gneE24 -gneE41 -15196728#11 -gneE46"/>
    </vehicle>
    <vehicle id="30" type="typeLight" depart="23.00">
        <route edges="gneE55 gneE60 gneE61 gneE62 gneE63 gneE64 gneE65 gneE66 gneE67 gneE68 gneE69 gneE70 gneE71 gneE72 -gneE83 -15258386 15258386 gneE83 -gneE72 -gneE71 -gneE70 -gneE69 -gneE68 -gneE67 -gneE66 -gneE65 -gneE64 -gneE63 -gneE62 -gneE61 -gneE60 -gneE55 -gneE54 gneE25 gneE31 gneE32"/>
    </vehicle>
    <vehicle id="31" type="typeLight" depart="23.00">
        <route edges="-gneE19"/>
    </vehicle>
    <vehicle id="32" type="typeNormal" depart="24.00">
        <route edges="15198692#3 15256606#0 15256606#2 370567030#0 -gneE36 -gneE24 -gneE23 gneE94 gneE95 gneE96 gneE97 318425078#6 318425078#7 gneE15 318425078#14"/>
    </vehicle>
    <vehicle id="33" type="typeLight" depart="25.00">
        <route edges="gneE46 15196728#2 -15196728#11 -gneE46 -gneE44 -gneE22 -gneE21 -gneE20 -gneE19 -gneE18 -gneE42 -117979582#0 -15253153#1"/>
    </vehicle>
    <vehicle id="34" type="typeHeavy2" depart="26.00">
        <route edges="gneE85 -15254743#12 -318425078#25 -318425078#19 gneE14 -318425078#11 -318425078#6 -gneE97 -gneE96 -gneE95 -gneE94 -gneE22 -gneE21"/>
    </vehicle>
    <vehicle id="35" type="typeLight" depart="26.00">
        <route edges="-gneE21 -gneE20 -gneE19"/>
    </vehicle>
    <vehicle id="36" type="typeNormal" depart="27.00">
        <route edges="-gneE32 -gneE31 -gneE25 -gneE24 -gneE23 -gneE22 -gneE21 -gneE20 -gneE19 -gneE18 gneE43 117979582#2 -117979582#4 -gneE43 gneE18 gneE19 gneE20 gneE21"/>
    </vehicle>
    <vehicle id="37" type="typeLight" depart="28.00">
        <route edges="gneE63 gneE64 gneE65 gneE66 gneE67 gneE68 gneE69 gneE70 gneE71 gneE72 -gneE83 -15258386 15258386 gneE83 -gneE72 -gneE71 -gneE70 -gneE69 -gneE68 -gneE67 -gneE66 -gneE65 -gneE64 -gneE63 -gneE62 -gneE61 -gneE60 -gneE55 -gneE54 -gneE24 -gneE23 -gneE22 -gneE21 -gneE20 -gneE19 -gneE18 gneE43 117979582#2 -117979582#4 -gneE43 gneE18 gneE19 gneE20 gneE21 gneE22"/>
    </vehicle>
    <vehicle id="38" type="typeLight" depart="28.00">
        <route edges="-318425048#8 -650246741#3 650246742#0 650246745#0 gneE52 -gneE44 gneE23 gneE24 gneE54 gneE55 gneE60 gneE61 gneE62 gneE63 gneE64 gneE65 gneE66 gneE67 gneE68 gneE69 gneE70 gneE71 gneE72 gneE73 gneE75 gneE76 gneE78 gneE80 gneE81 gneE82"/>
    </vehicle>
    <vehicle id="39" type="typeLight" depart="30.00">
        <route edges="-gneE48 -gneE47 -gneE46 -gneE44 gneE94 gneE95 gneE96 gneE97 318425078#6 318425078#7 gneE15 318425078#14 -15254762#7"/>
    </vehicle>
    <vehicle id="40" type="typeLight" depart="31.00">
        <route edges="gneE3 gneE4 -gneE93 -gneE92 -gneE88 -gneE69 -gneE68 -gneE67 -gneE66 -gneE65 -gneE64 -gneE63 -gneE62 -gneE61 -gneE60 -gneE55 -gneE54 -gneE24 -gneE23 -gneE22 -gneE21"/>
    </vehicle>
    <vehicle id="41" type="typeHeavy2" depart="32.00">
        <route edges="-gneE22 -gneE21 -gneE20 -gneE19 -gneE18 gneE43 117979582#2 -117979582#4 -gneE43 gneE18 gneE19 gneE20 gneE21 gneE22 gneE44 gneE46 15196728#2 -15196728#11 -gneE46 -gneE44"/>
    </vehicle>
    <vehicle id="42" type="typeLight" depart="34.00">
        <route edges="-gneE82 -gneE81 -gneE80 -gneE78 -gneE77 -gneE75 -gneE74 -gneE72 -gneE71 -gneE70 -gneE69 -gneE68 -gneE67 -gneE66 -gneE65 -gneE64 -gneE63 -gneE62 -gneE61 -gneE60 -gneE55 -gneE54 gneE36"/>
    </vehicle>
    <vehicle id="43" type="typeLight" depart="35.00">
        <route edges="-15198692#3 15198692#3 15256606#0 15256606#2 370567030#0 -gneE36 gneE25 gneE31 gneE32"/>
    </vehicle>
    <vehicle id="44" type="typeLight" depart="35.00">
        <route edges="-gneE83 -15258386 15258386 gneE83 -gneE72 -gneE71 -gneE70 -gneE69 -gneE68 -gneE67 -gneE66 -gneE65 -gneE64 -gneE63 -gneE62 -gneE61 -gneE60 -gneE55 -gneE54 -gneE24 -gneE41"/>
    </vehicle>
    <vehicle id="45" type="typeNormal" depart="35.00">
        <route edges="-gneE87 -171757885#12 171757885#2 gneE87 gneE71 gneE72 gneE73 gneE85"/>
    </vehicle>
    <vehicle id="47" type="typeHeavy1" depart="39.00">
        <route edges="gneE3 gneE4 -gneE93 -gneE92 -gneE88 -gneE69 -gneE68 -gneE67 -gneE66 -gneE65 -gneE64 -gneE63 -gneE62 -gneE61 -gneE60 -gneE55 -gneE54 -gneE24 -gneE23 gneE44 -gneE52 -650246745#1 -650246743#2 650246741#3 -650246741#3 650246742#0"/>
    </vehicle>
    <vehicle id="48" type="typeLight" depart="40.00">
        <route edges="-gneE71 -gneE70 -gneE69 -gneE68 -gneE67 -gneE66 -gneE65 -gneE64 -gneE63 -gneE62 -gneE61 -gneE60 -gneE55 -gneE54 -gneE24 -gneE23 -gneE22 -gneE21 -gneE20 -gneE19 -gneE18 gneE43 117979582#2 -117979582#4 -gneE43 gneE18 gneE19 gneE20"/>
    </vehicle>
    <vehicle id="49" type="typeNormal" depart="41.00">
        <route edges="-gneE55 -gneE54 -gneE24 -gneE23 -gneE22 -gneE21 -gneE20 -gneE19 -gneE18 gneE43 117979582#2 -117979582#4 -gneE43 gneE18"/>
    </vehicle>
    <vehicle id="50" type="typeNormal" depart="41.00">
        <route edges="-gneE65 -gneE64 -gneE63 -gneE62 -gneE61 -gneE60 -gneE55 -gneE54 -gneE24 -gneE23 gneE94 gneE95 gneE96 gneE97 318425078#6 318425078#7 gneE15 318425078#14 318425078#20 -15254743#1 -15254743#0"/>
    </vehicle>
    <vehicle id="51" type="typeNormal" depart="41.00">
        <route edges="-gneE24 -gneE41"/>
    </vehicle>
    <vehicle id="52" type="typeNormal" depart="42.00">
        <route edges="gneE20 gneE21 gneE22 gneE94 gneE95 gneE96 gneE97 318425078#6 318425078#7 -318425078#11 -318425078#6 -gneE97 -gneE96 -gneE95 -gneE94 -gneE22 -gneE21"/>
    </vehicle>
    <vehicle id="53" type="typeHeavy2" depart="45.00">
        <route edges="gneE18 gneE19 gneE20 gneE21 gneE22 gneE94 gneE95 gneE96 gneE97 318425078#6 318425078#7 gneE15 318425078#14 -15254762#7 -15255985#0"/>
    </vehicle>
    <vehicle id="54" type="typeHeavy2" depart="45.00">
        <route edges="gneE96 gneE97 318425078#6 318425078#7 gneE15 318425078#14 318425078#20 15254743#2 -gneE85 -gneE74 -gneE83 -15258386 15258386 gneE83"/>
    </vehicle>
    <vehicle id="55" type="typeLight" depart="45.00">
        <route edges="-gneE78 -gneE77 -gneE75 -gneE74 -gneE72 -gneE71 -gneE70 -gneE69 -gneE68 -gneE67 -gneE66 -gneE65 -gneE64 -gneE63 -gneE62 -gneE61 -gneE60 -gneE55 -gneE54 gneE36 -370567030#2 -15256606#5 15256606#2 370567030#0 -gneE36 gneE54 gneE55 gneE60 gneE61 gneE62 gneE63 gneE64 gneE65 gneE66"/>
    </vehicle>
    <vehicle id="56" type="typeNormal" depart="46.00">
        <route edges="-gneE41 -15196728#11 -gneE46 -gneE44 -gneE22 -gneE21 -gneE20 -gneE19 -gneE18 -gneE42"/>
    </vehicle>
    <vehicle id="57" type="typeNormal" depart="47.00">
        <route edges="-gneE69 -gneE68 -gneE67 -gneE66 -gneE65 -gneE64 -gneE63 -gneE62 -gneE61 -gneE60 -gneE55 -gneE54 gneE36 -370567030#2 -15256606#5 15256606#2 370567030#0 -gneE36 gneE54 gneE55 gneE60 gneE61"/>
    </vehicle>
    <vehicle id="58" type="typeLight" depart="47.00">
        <route edges="-gneE74 -gneE72 -gneE71 -gneE70 -gneE69 -gneE68 -gneE67 -gneE66 -gneE65 -gneE64 -gneE63 -gneE62 -gneE61 -gneE60 -gneE55 -gneE54 -gneE24 -gneE23 gneE94 gneE95 gneE96 gneE97 318425078#6 318425078#7 -318425078#11 -318425078#6 -gneE97 -gneE96 -gneE95 -gneE94"/>
    </vehicle>
    <vehicle id="59" type="typeHeavy2" depart="48.00">
        <route edges="-gneE36 -gneE24 -gneE23 -gneE22 -gneE21 -gneE20 -gneE19 -gneE18 gneE43 117979582#2 -117979582#4 -gneE43 gneE18"/>
    </vehicle>
    <vehicle id="60" type="typeLight" depart="49.00">
        <route edges="15254762#0 -318425078#19 gneE14 -318425078#11 -318425078#6 -gneE97 -gneE96 -gneE95 -gneE94 gneE23 gneE24 gneE54 gneE55 gneE60 gneE61 gneE62"/>
    </vehicle>
    <vehicle id="61" type="typeNormal" depart="49.00">
        <route edges="-gneE18 gneE43 117979582#2 -117979582#4 -gneE43 gneE18 gneE19 gneE20 gneE21 gneE22 gneE23 gneE24 gneE25"/>
    </vehicle>
    <vehicle id="62" type="typeLight" depart="50.00">
        <route edges="-gneE62 -gneE61 -gneE60 -gneE55 -gneE54 -gneE24 -gneE41 -15199267#9 -15202398#12"/>
    </vehicle>
    <vehicle id="64" type="typeLight" depart="52.00">
        <route edges="-650246741#3 650246742#0 650246745#0 gneE52 -gneE44 gneE23 gneE24 gneE54 gneE55 gneE60 gneE61 gneE62 gneE63 gneE64 gneE65 gneE66 gneE67 gneE68 gneE69 gneE88 gneE89 gneE93"/>
    </vehicle>
    <vehicle id="65" type="typeNormal" depart="53.00">
        <route edges="gneE0 -117979582#4 -gneE43 gneE18 gneE19 gneE20 gneE21 gneE22 gneE23 gneE24 gneE54 gneE55 gneE60 gneE61 gneE62 gneE63 gneE64 gneE65 gneE66 gneE67 gneE68 gneE69 gneE70 gneE71 gneE72 gneE73 gneE75"/>
    </vehicle>
    <vehicle id="66" type="typeHeavy2" depart="53.00">
        <route edges="325321431#1 340424302#1 gneE3 gneE4 -gneE93 -gneE92 -gneE88 -gneE69 -gneE68 -gneE67 -gneE66 -gneE65 -gneE64 -gneE63 -gneE62 -gneE61 -gneE60 -gneE55 -gneE54 -gneE24 -gneE23 gneE94"/>
    </vehicle>
    <vehicle id="67" type="typeLight" depart="53.00">
        <route edges="-gneE52 -650246745#1 -650246743#2 650246741#3 -650246741#3 650246742#0 650246745#0 gneE52 -gneE44 gneE23 -gneE41 -15196728#11"/>
    </vehicle>
    <vehicle id="69" type="typeHeavy2" depart="56.00">
        <route edges="-318425048#8 -650246741#3 650246742#0 650246745#0 gneE52 -gneE44 gneE23 gneE24 gneE54 gneE55 gneE60 gneE61 gneE62 gneE63 gneE64 gneE65 gneE66 gneE67 gneE68 gneE69 gneE88"/>
    </vehicle>
    <vehicle id="70" type="typeLight" depart="56.00">
        <route edges="gneE62 gneE63 gneE64 gneE65 gneE66 gneE67 gneE68 gneE69 gneE70 gneE71 gneE72 -gneE83 -15258386 15258386 gneE83 -gneE72 -gneE71 -gneE70 -gneE69 -gneE68 -gneE67 -gneE66 -gneE65 -gneE64 -gneE63 -gneE62 -gneE61 -gneE60 -gneE55 -gneE54 gneE36 -370567030#2 -15256606#5 15256606#2 370567030#0 -gneE36 gneE54 gneE55 gneE60"/>
    </vehicle>
    <vehicle id="71" type="typeLight" depart="58.00">
        <route edges="gneE43 117979582#2 -117979582#4 -gneE43 gneE18 gneE19 gneE20 gneE21 gneE22 gneE94 gneE95 gneE96 gneE97 318425078#6 318425078#7 -318425078#11 -318425078#6 -gneE97 -gneE96 -gneE95 -gneE94 -gneE22"/>
    </vehicle>
    <vehicle id="72" type="typeLight" depart="62.00">
        <route edges="-gneE75 -gneE74 -gneE72 -gneE71 -gneE70 -gneE69 -gneE68 -gneE67 -gneE66 -gneE65 -gneE64 -gneE63 -gneE62 -gneE61 -gneE60 -gneE55 -gneE54 -gneE24 -gneE23 -gneE22 -gneE21 -gneE20 -gneE19 -gneE18 gneE43 117979582#2 -117979582#4 -gneE43 gneE18 gneE19 gneE20 gneE21"/>
    </vehicle>
    <vehicle id="74" type="typeLight" depart="62.00">
        <route edges="gneE15 318425078#14 318425078#20 15254743#2 -gneE85 -gneE74 -gneE72 -gneE71"/>
    </vehicle>
    <vehicle id="75" type="typeLight" depart="62.00">
        <route edges="-gneE75 -gneE74 -gneE72 -gneE71 -gneE70 -gneE69 -gneE68 -gneE67 -gneE66 -gneE65 -gneE64 -gneE63 -gneE62 -gneE61 -gneE60 -gneE55 -gneE54 -gneE24 -gneE23"/>
    </vehicle>
    <vehicle id="76" type="typeLight" depart="63.00">
        <route edges="-gneE44 gneE23 -gneE41 -15196728#11 gneE47"/>
    </vehicle>
    <vehicle id="78" type="typeNormal" depart="64.00">
        <route edges="-gneE74 -gneE72 -gneE71 -gneE70 -gneE69 -gneE68 -gneE67 -gneE66 -gneE65 -gneE64 -gneE63 -gneE62 -gneE61 -gneE60 -gneE55 -gneE54 -gneE24 -gneE23 -gneE22 -gneE21 -gneE20 -gneE19"/>
    </vehicle>
    <vehicle id="79" type="typeLight" depart="64.00">
        <route edges="-gneE81 -gneE80 -gneE78 -gneE77 -gneE75 -gneE74 -gneE72 -gneE71 -gneE70 -gneE69 -gneE68 -gneE67 -gneE66 -gneE65 -gneE64 -gneE63 -gneE62 -gneE61 -gneE60 -gneE55 -gneE54 -gneE24 -gneE23 gneE44 -gneE52 -650246745#1 -650246743#2 650246741#3"/>
    </vehicle>
    <vehicle id="81" type="typeLight" depart="65.00">
        <route edges="243478541#2 -318414469 654285496#0 -243478541#2 243478551#0 15256606#2 370567030#0 -gneE36 -gneE24 -gneE23 gneE94 gneE95 gneE96 gneE97 318425078#6 318425078#7 gneE15 318425078#14 318425078#20 -15254743#1 -15254743#0"/>
    </vehicle>
    <vehicle id="82" type="typeNormal" depart="67.00">
        <route edges="-gneE23 -gneE22 -gneE21 -gneE20 -gneE19 -gneE18 gneE43 117979582#2 -117979582#4 -gneE43 gneE18"/>
    </vehicle>
    <vehicle id="83" type="typeNormal" depart="68.00">
        <route edges="-gneE62 -gneE61 -gneE60 -gneE55 -gneE54 gneE36 -370567030#2 -15256606#5 15256606#2 370567030#0 -gneE36 gneE54 gneE55 gneE60 gneE61 gneE62 gneE63 gneE64 gneE65 gneE66 gneE67 gneE68 gneE69 gneE70 gneE71 gneE72 -gneE83 -15258386 15258386 gneE83 -gneE72 -gneE71 -gneE70 -gneE69 -gneE68 -gneE67 -gneE66 -gneE65 -gneE64"/>
    </vehicle>
    <vehicle id="84" type="typeNormal" depart="69.00">
        <route edges="-15256203#2 15254743#1 -318425078#25 -318425078#19 gneE14 -318425078#11 -318425078#6 -gneE97 -gneE96 -gneE95 -gneE94 -gneE22 -gneE21 -gneE20 -gneE19 -gneE18 -gneE16"/>
    </vehicle>
    <vehicle id="86" type="typeNormal" depart="70.00">
        <route edges="-gneE75 -gneE74 -gneE72 -gneE71 -gneE70"/>
    </vehicle>
    <vehicle id="87" type="typeHeavy1" depart="70.00">
        <route edges="gneE36 -370567030#2 -15256606#5 15256606#2 370567030#0 -gneE36 gneE54 gneE55 gneE60 gneE61 gneE62 gneE63 gneE64 gneE65 gneE66 gneE67 gneE68 gneE69 gneE70 gneE71 gneE72 -gneE83 -15258386 15258386 gneE83 -gneE72 -gneE71 -gneE70 -gneE69 -gneE68 -gneE67 -gneE66 -gneE65 -gneE64 -gneE63 -gneE62 -gneE61 -gneE60 -gneE55"/>
    </vehicle>
    <vehicle id="88" type="typeNormal" depart="71.00">
        <route edges="gneE70 gneE71 gneE72 -gneE83 -15258386 15258386 gneE83 -gneE72 -gneE71 -gneE70 -gneE69 -gneE68 -gneE67 -gneE66 -gneE65 -gneE64 -gneE63 -gneE62 -gneE61 -gneE60 -gneE55 -gneE54 gneE36 -370567030#2 -15256606#5 15256606#2 370567030#0 -gneE36 gneE54 gneE55 gneE60"/>
    </vehicle>
    <vehicle id="89" type="typeNormal" depart="71.00">
        <route edges="-318425078#19 gneE14 -318425078#11 -318425078#6 -gneE97 -gneE96 -gneE95 -gneE94 gneE23 gneE24 gneE36 -370567030#2 -15256606#5 15256606#2 370567030#0 -gneE36"/>
    </vehicle>
    <vehicle id="90" type="typeLight" depart="72.00">
        <route edges="-gneE82 -gneE81 -gneE80 -gneE78 -gneE77 -gneE75 gneE85 15254898#0 -15254898#0 -gneE85 gneE75 gneE76 gneE78"/>
    </vehicle>
    <vehicle id="91" type="typeHeavy2" depart="73.00">
        <route edges="-gneE78 -gneE77 -gneE75 -gneE74 -gneE72 -gneE71 -gneE70 -gneE69 -gneE68 -gneE67 -gneE66 -gneE65 -gneE64 -gneE63 -gneE62 -gneE61 -gneE60 -gneE55 -gneE54 -gneE24 -gneE23 gneE44 gneE46 gneE47 gneE49 gneE50 gneE51"/>
    </vehicle>
    <vehicle id="92" type="typeLight" depart="75.00">
        <route edges="-gneE31 -gneE25 gneE36 -370567030#2 -15256606#5 -15256606#1 -15198692#3 -15198692#2"/>
    </vehicle>
    <vehicle id="93" type="typeLight" depart="76.00">
        <route edges="-gneE80 -gneE78 -gneE77 -gneE75 -gneE74 -gneE72 -gneE71 -gneE70 -gneE69 -gneE68 -gneE67 -gneE66 -gneE65 -gneE64 -gneE63 -gneE62 -gneE61 -gneE60 -gneE55 -gneE54 gneE36 -370567030#2 -15256606#5 15256606#2 370567030#0 -gneE36 gneE54 gneE55 gneE60 gneE61 gneE62 gneE63 gneE64 gneE65 gneE66 gneE67 gneE68 gneE69 gneE70"/>
    </vehicle>
    <vehicle id="94" type="typeLight" depart="76.00">
        <route edges="15256606#2 370567030#0 -gneE36 -gneE24 -gneE23 gneE94 gneE95 gneE96 gneE97 318425078#6 318425078#7 gneE15 318425078#14 318425078#20"/>
    </vehicle>
    <vehicle id="95" type="typeHeavy1" depart="76.00">
        <route edges="-gneE63 -gneE62 -gneE61 -gneE60 -gneE55 -gneE54 gneE36 -370567030#2 -15256606#5 15256606#2 370567030#0 -gneE36 gneE54 gneE55 gneE60 gneE61 gneE62 gneE63 gneE64 gneE65 gneE66 gneE67 gneE68 gneE69 gneE88 gneE89 gneE93 -275688225#0 15254815#0 -gneE93 -gneE92 -gneE88"/>
    </vehicle>
    <vehicle id="96" type="typeNormal" depart="77.00">
        <route edges="gneE18 gneE19 gneE20 gneE21 gneE22 gneE94 gneE95 gneE96 gneE97 318425078#6"/>
    </vehicle>
    <vehicle id="97" type="typeHeavy2" depart="77.00">
        <route edges="gneE22 gneE23 gneE24 gneE36 -370567030#2 -15256606#5 -15256606#1 -15198692#3 -110564180"/>
    </vehicle>
    <vehicle id="98" type="typeNormal" depart="77.00">
        <route edges="-gneE19 -gneE18 gneE43 117979582#2 -117979582#4 -gneE43 gneE18 gneE19 gneE20 gneE21 gneE22 gneE23 gneE24 gneE36 -370567030#2 -15256606#5 -243478551#3 243478541#2 -318414469"/>
    </vehicle>
    <vehicle id="101" type="typeNormal" depart="82.00">
        <route edges="gneE19 gneE20 gneE21 gneE22 gneE94 gneE95 gneE96 gneE97 318425078#6 318425078#7 gneE15 318425078#14 318425078#20 15254743#2 -gneE85 -gneE74 -gneE72 -gneE71 -gneE70 -gneE69"/>
    </vehicle>
    <vehicle id="102" type="typeHeavy1" depart="83.00">
        <route edges="-gneE44 gneE94 gneE95 gneE96 gneE97 -15257098#11 15257098#9"/>
    </vehicle>
    <vehicle id="103" type="typeNormal" depart="84.00">
        <route edges="-15257098#11 15257098#9 -gneE97 -gneE96 -gneE95 -gneE94 gneE23 gneE24 gneE54"/>
    </vehicle>
    <vehicle id="104" type="typeHeavy2" depart="85.00">
        <route edges="15254743#0 15254743#1 15254743#2 -gneE85 -gneE74 -gneE72 -gneE71 -gneE70 gneE88 gneE89 gneE93 gneE6 gneE9 -340424302#1 -325321431#1 340424308#0"/>
    </vehicle>
    <vehicle id="105" type="typeLight" depart="86.00">
        <route edges="gneE42 gneE18 gneE19 gneE20 gneE21 gneE22 gneE23 gneE24 gneE36 -370567030#2 -15256606#5 15256606#2 370567030#0 -gneE36 -gneE24 -gneE23"/>
    </vehicle>
    <vehicle id="106" type="typeLight" depart="89.00">
        <route edges="15254743#1 -318425078#25 -318425078#19 gneE14 -318425078#11 -318425078#6 -gneE97 -gneE96 -gneE95 -gneE94 gneE23 gneE24 gneE36 -370567030#2 -15256606#5 -15256606#1 -15198692#3"/>
    </vehicle>
    <vehicle id="107" type="typeLight" depart="90.00">
        <route edges="-15257098#11 15257098#9 -gneE97 -gneE96 -gneE95 -gneE94 -gneE22"/>
    </vehicle>
    <vehicle id="108" type="typeNormal" depart="90.00">
        <route edges="gneE62 gneE63 gneE64 gneE65 gneE66 gneE67 gneE68 gneE69 gneE70 gneE71 gneE72 -gneE83 -15258386 15258386 gneE83 -gneE72 -gneE71 -gneE70 -gneE69 -gneE68 -gneE67 -gneE66 -gneE65 -gneE64 -gneE63 -gneE62 -gneE61 -gneE60 -gneE55 -gneE54 gneE25"/>
    </vehicle>
    <vehicle id="109" type="typeLight" depart="90.00">
        <route edges="gneE69 gneE70 gneE71 gneE72 gneE73 gneE85 -15254743#12 -318425078#25 -318425078#19 gneE14 -318425078#11 -318425078#6 -gneE97 -gneE96 -gneE95 -gneE94 gneE23 gneE24"/>
    </vehicle>
    <vehicle id="110" type="typeNormal" depart="91.00">
        <route edges="-gneE68 -gneE67 -gneE66 -gneE65 -gneE64 -gneE63 -gneE62 -gneE61 -gneE60 -gneE55 -gneE54 -gneE24 -gneE23 gneE94 gneE95 gneE96 gneE97 318425078#6 318425078#7 gneE15 318425078#14"/>
    </vehicle>
    <vehicle id="111" type="typeNormal" depart="91.00">
        <route edges="gneE83 -gneE72 -gneE71 -gneE70 -gneE69 -gneE68 -gneE67 -gneE66 -gneE65 -gneE64 -gneE63 -gneE62 -gneE61 -gneE60 -gneE55 -gneE54 -gneE24 -gneE23 -gneE22 -gneE21 -gneE20 -gneE19 -gneE18"/>
    </vehicle>
    <vehicle id="112" type="typeNormal" depart="92.00">
        <route edges="-15199267#9 -15202398#12 15202398#3 15199267#7 15196728#12 gneE24 gneE54 gneE55 gneE60 gneE61 gneE62 gneE63 gneE64 gneE65 gneE66 gneE67 gneE68"/>
    </vehicle>
    <vehicle id="113" type="typeLight" depart="92.00">
        <route edges="-318425078#11 -318425078#6 -gneE97 -gneE96 -gneE95 -gneE94 gneE23 gneE24 gneE36 -370567030#2 -15256606#5 15256606#2 370567030#0 -gneE36 -gneE24 -gneE23 gneE94 gneE95 gneE96 gneE97"/>
    </vehicle>
    <vehicle id="114" type="typeNormal" depart="92.00">
        <route edges="gneE31 gneE32"/>
    </vehicle>
    <vehicle id="116" type="typeNormal" depart="94.00">
        <route edges="650246741#3 -650246741#3 650246742#0 650246745#0 gneE52 -gneE44 gneE23 gneE24 gneE54 gneE55 gneE60 gneE61 gneE62 gneE63 gneE64 gneE65 gneE66 gneE67"/>
    </vehicle>
    <vehicle id="117" type="typeLight" depart="95.00">
        <route edges="gneE43 117979582#2 -117979582#4 -gneE43 gneE18 gneE19 gneE20 gneE21 gneE22 gneE23 gneE24 gneE54 gneE55 gneE60 gneE61 gneE62 gneE63 gneE64 gneE65 gneE66 gneE67 gneE68 gneE69 gneE70 gneE71 gneE72 gneE73 gneE85"/>
    </vehicle>
    <vehicle id="119" type="typeLight" depart="99.00">
        <route edges="-gneE61 -gneE60 -gneE55 -gneE54 gneE36 -370567030#2 -15256606#5 15256606#2 370567030#0 -gneE36 gneE54 gneE55 gneE60 gneE61 gneE62 gneE63 gneE64 gneE65 gneE66 gneE67"/>
    </vehicle>
    <vehicle id="120" type="typeNormal" depart="99.00">
        <route edges="-gneE18 gneE43 117979582#2 -117979582#4 -gneE43 gneE18 gneE19 gneE20 gneE21 gneE22 gneE94 gneE95 gneE96 gneE97 318425078#6 318425078#7 gneE15 318425078#14 318425078#20 -15254743#1 15254743#1"/>
    </vehicle>
    <vehicle id="122" type="typeLight" depart="101.00">
        <route edges="-262977941#3 -318425078#6 -gneE97 -gneE96 -gneE95 -gneE94 -gneE22 -gneE21 -gneE20 -gneE19 -gneE18 gneE43 117979582#2 -117979582#4 -gneE43 gneE18 gneE19 gneE20 gneE21"/>
    </vehicle>
    <vehicle id="123" type="typeNormal" depart="101.00">
        <route edges="-318425078#31 -318425078#25 -318425078#19 gneE14 -318425078#11 -318425078#6 -gneE97 -gneE96 -gneE95 -gneE94 gneE23 gneE24 gneE54 gneE55 gneE60 gneE61 gneE62 gneE63"/>
    </vehicle>
    <vehicle id="124" type="typeHeavy2" depart="102.00">
        <route edges="340424302#1 gneE3 gneE4 -gneE93 -gneE92"/>
    </vehicle>
    <vehicle id="125" type="typeHeavy1" depart="102.00">
        <route edges="-gneE24 -gneE23 gneE94 gneE95 gneE96 gneE97 318425078#6 318425078#7 gneE15 318425078#14 318425078#20 15254743#2 -gneE85 -gneE74 -gneE72 -gneE71 -gneE70 -gneE69 -gneE68 -gneE67 -gneE66 -gneE65 -gneE64 -gneE63 -gneE62 -gneE61 -gneE60 -gneE55 -gneE54"/>
    </vehicle>
    <vehicle id="126" type="typeLight" depart="104.00">
        <route edges="-gneE24 -gneE41 15196728#12 gneE24 gneE54 gneE55"/>
    </vehicle>
    <vehicle id="127" type="typeHeavy1" depart="105.00">
        <route edges="gneE3 gneE4 -gneE93 -gneE92 -gneE88 -gneE69 -gneE68 -gneE67 -gneE66 -gneE65 -gneE64 -gneE63 -gneE62 -gneE61 -gneE60 -gneE55 -gneE54 -gneE24 -gneE23 -gneE22 -gneE21 -gneE20 -gneE19 -gneE18 -gneE42 -117979582#0 -15253153#1 465177314#0 15257902"/>
    </vehicle>
    <vehicle id="130" type="typeNormal" depart="109.00">
        <route edges="gneE23 gneE24 gneE54 gneE55 gneE60 gneE61 gneE62 gneE63 gneE64 gneE65 gneE66 gneE67 gneE68 gneE69 gneE70 gneE71 gneE72 -gneE83 -15258386 15258386 gneE83 -gneE72 -gneE71 -gneE70 -gneE69 -gneE68 -gneE67 -gneE66 -gneE65 -gneE64"/>
    </vehicle>
    <vehicle id="131" type="typeNormal" depart="111.00">